Version 4.1
SHEET 1 2104 836
WIRE -32 -272 -96 -272
WIRE 48 -272 -32 -272
WIRE 144 -272 48 -272
WIRE 176 -272 144 -272
WIRE 464 -272 400 -272
WIRE 576 -272 528 -272
WIRE -96 -240 -96 -272
WIRE -32 -240 -32 -272
WIRE 48 -224 48 -272
WIRE 400 -176 400 -272
WIRE 464 -176 400 -176
WIRE 576 -176 576 -272
WIRE 576 -176 544 -176
WIRE 928 -176 912 -176
WIRE 1072 -176 1008 -176
WIRE -96 -144 -96 -176
WIRE -32 -144 -32 -176
WIRE -32 -144 -96 -144
WIRE 48 -144 -32 -144
WIRE 48 -128 48 -144
WIRE 912 -64 912 -176
WIRE 960 -64 912 -64
WIRE 400 -48 400 -176
WIRE 464 -48 400 -48
WIRE 1072 -48 1072 -176
WIRE 1072 -48 1024 -48
WIRE 1152 -48 1072 -48
WIRE 1232 -48 1152 -48
WIRE 576 -32 576 -176
WIRE 576 -32 528 -32
WIRE 656 -32 576 -32
WIRE 752 -32 736 -32
WIRE 784 -32 752 -32
WIRE 896 -32 864 -32
WIRE 960 -32 896 -32
WIRE 80 -16 -144 -16
WIRE 128 -16 80 -16
WIRE 320 -16 208 -16
WIRE 464 -16 320 -16
WIRE 1232 48 1232 32
WIRE 1360 48 1232 48
WIRE 1392 48 1360 48
WIRE 1232 64 1232 48
WIRE 752 128 752 -32
WIRE 880 128 752 128
WIRE 1152 128 1152 -48
WIRE 1152 128 944 128
WIRE 448 176 384 176
WIRE 560 176 512 176
WIRE 384 272 384 176
WIRE 448 272 384 272
WIRE 560 272 560 176
WIRE 560 272 528 272
WIRE 1584 272 1424 272
WIRE 1808 272 1648 272
WIRE 1008 288 800 288
WIRE 1232 288 1072 288
WIRE 384 400 384 272
WIRE 448 400 384 400
WIRE 800 400 800 288
WIRE 832 400 800 400
WIRE 992 400 912 400
WIRE 1104 400 992 400
WIRE 1424 400 1424 272
WIRE 1456 400 1424 400
WIRE 1568 400 1536 400
WIRE 1664 400 1568 400
WIRE 560 416 560 272
WIRE 560 416 512 416
WIRE 672 416 560 416
WIRE 800 416 800 400
WIRE 800 416 752 416
WIRE 1216 416 1168 416
WIRE 1232 416 1232 288
WIRE 1232 416 1216 416
WIRE 1296 416 1232 416
WIRE 1424 416 1424 400
WIRE 1424 416 1376 416
WIRE 1792 416 1728 416
WIRE 1808 416 1808 272
WIRE 1808 416 1792 416
WIRE 1840 416 1808 416
WIRE 1936 416 1840 416
WIRE 1968 416 1936 416
WIRE 80 432 80 -16
WIRE 112 432 80 432
WIRE 304 432 192 432
WIRE 448 432 304 432
WIRE 1104 432 1088 432
WIRE 1664 432 1648 432
WIRE 1088 496 1088 432
WIRE 1216 496 1216 416
WIRE 1216 496 1088 496
WIRE 1648 496 1648 432
WIRE 1792 496 1792 416
WIRE 1792 496 1648 496
FLAG 48 -128 0
FLAG 144 -272 +fv
FLAG 496 0 0
FLAG 496 -64 +fv
FLAG -144 64 0
FLAG 992 -16 0
FLAG 992 -80 +fv
FLAG 320 64 0
FLAG 1232 128 0
FLAG 896 32 0
FLAG 1360 48 base
FLAG 992 464 0
FLAG 1568 464 0
FLAG 1840 480 0
FLAG 1136 384 0
FLAG 1136 448 +fv
FLAG 1696 384 0
FLAG 1696 448 +fv
FLAG 480 448 0
FLAG 480 384 +fv
FLAG 304 512 0
FLAG 1936 416 stack
SYMBOL OpAmps\\MAX74821 496 -96 R0
SYMATTR InstName U1
SYMBOL voltage 48 -240 R0
WINDOW 123 0 0 Left 0
WINDOW 39 0 0 Left 0
SYMATTR InstName V1
SYMATTR Value 3
SYMBOL cap -48 -240 R0
SYMATTR InstName C4
SYMATTR Value 0.01µ
SYMBOL cap -112 -240 R0
SYMATTR InstName C5
SYMATTR Value 2.2µ
SYMBOL voltage -144 -32 R0
WINDOW 123 24 124 Left 2
WINDOW 39 0 0 Left 0
SYMATTR Value2 AC 1.5
SYMATTR InstName V2
SYMATTR Value ""
SYMBOL res 224 -32 R90
WINDOW 0 0 56 VBottom 2
WINDOW 3 32 56 VTop 2
SYMATTR InstName R1
SYMATTR Value 3k
SYMBOL res 336 80 R180
WINDOW 0 36 76 Left 2
WINDOW 3 36 40 Left 2
SYMATTR InstName R2
SYMATTR Value 1k
SYMBOL res 560 -192 R90
WINDOW 0 0 56 VBottom 2
WINDOW 3 32 56 VTop 2
SYMATTR InstName R3
SYMATTR Value 1k
SYMBOL cap 528 -288 R90
WINDOW 0 0 32 VBottom 2
WINDOW 3 32 32 VTop 2
SYMATTR InstName C1
SYMATTR Value 10µF
SYMBOL res 752 -48 R90
WINDOW 0 0 56 VBottom 2
WINDOW 3 32 56 VTop 2
SYMATTR InstName R4
SYMATTR Value 1k
SYMBOL res 880 -48 R90
WINDOW 0 0 56 VBottom 2
WINDOW 3 32 56 VTop 2
SYMATTR InstName R5
SYMATTR Value 1k
SYMBOL OpAmps\\MAX74821 992 -112 R0
SYMATTR InstName U2
SYMBOL cap 880 -32 R0
SYMATTR InstName C2
SYMATTR Value 10µ
SYMBOL cap 944 112 R90
WINDOW 0 0 32 VBottom 2
WINDOW 3 32 32 VTop 2
SYMATTR InstName C3
SYMATTR Value 10µ
SYMBOL res 1024 -192 R90
WINDOW 0 0 56 VBottom 2
WINDOW 3 32 56 VTop 2
SYMATTR InstName R6
SYMATTR Value 1k
SYMBOL res 1248 48 R180
WINDOW 0 36 76 Left 2
WINDOW 3 36 40 Left 2
SYMATTR InstName R7
SYMATTR Value 1k
SYMBOL cap 1216 64 R0
SYMATTR InstName C6
SYMATTR Value 10µ
SYMBOL cap 976 400 R0
SYMATTR InstName C7
SYMATTR Value 10n
SYMBOL cap 1552 400 R0
SYMATTR InstName C8
SYMATTR Value 10n
SYMBOL res 928 384 R90
WINDOW 0 0 56 VBottom 2
WINDOW 3 32 56 VTop 2
SYMATTR InstName R8
SYMATTR Value 14k
SYMBOL res 1552 384 R90
WINDOW 0 0 56 VBottom 2
WINDOW 3 32 56 VTop 2
SYMATTR InstName R9
SYMATTR Value 1.62k
SYMBOL res 1392 400 R90
WINDOW 0 0 56 VBottom 2
WINDOW 3 32 56 VTop 2
SYMATTR InstName R10
SYMATTR Value 1.37k
SYMBOL cap 1072 272 R90
WINDOW 0 0 32 VBottom 2
WINDOW 3 32 32 VTop 2
SYMATTR InstName C9
SYMATTR Value 25n
SYMBOL cap 1648 256 R90
WINDOW 0 0 32 VBottom 2
WINDOW 3 32 32 VTop 2
SYMATTR InstName C10
SYMATTR Value 511n
SYMBOL res 768 400 R90
WINDOW 0 0 56 VBottom 2
WINDOW 3 32 56 VTop 2
SYMATTR InstName R11
SYMATTR Value 11.5k
SYMBOL cap 1824 416 R0
SYMATTR InstName C11
SYMATTR Value 1n
SYMBOL OpAmps\\MAX74821 1136 480 M180
SYMATTR InstName U5
SYMBOL OpAmps\\MAX74821 1696 480 M180
SYMATTR InstName U3
SYMBOL OpAmps\\MAX74821 480 352 R0
SYMATTR InstName U4
SYMBOL res 208 416 R90
WINDOW 0 0 56 VBottom 2
WINDOW 3 32 56 VTop 2
SYMATTR InstName R12
SYMATTR Value 3k
SYMBOL res 320 528 R180
WINDOW 0 36 76 Left 2
WINDOW 3 36 40 Left 2
SYMATTR InstName R13
SYMATTR Value 1k
SYMBOL res 544 256 R90
WINDOW 0 0 56 VBottom 2
WINDOW 3 32 56 VTop 2
SYMATTR InstName R14
SYMATTR Value 1k
SYMBOL cap 512 160 R90
WINDOW 0 0 32 VBottom 2
WINDOW 3 32 32 VTop 2
SYMATTR InstName C12
SYMATTR Value 10µF
TEXT -168 96 Left 2 !.ac dec 20 1 1000000
